OPT_V8/My_Campus_24/powerflow_results_t14.txt
Pandapower Network Debug Info
==================================================

BUS:
       vm_pu  va_degree      p_mw    q_mvar
0   0.997539   0.342420 -0.001459  0.001125
1   0.996000   0.546766 -0.001277  0.001637
2   0.993660   0.722568 -0.000033  0.003331
3   0.995483   0.513251 -0.000247  0.004242
4   0.992056   0.459204  0.000804  0.005888
5   0.995694   0.357859  0.000728  0.006511
6   0.996147   0.458085 -0.001290  0.000987
7   0.999183   0.083935 -0.000409  0.001758
8   0.998694   0.088968 -0.000937  0.002674
9   0.999915   0.002209  0.005415  0.011425
10  0.999904   0.002349  0.008668  0.008997
11  0.999896   0.002486  0.007182  0.010463
12  0.999830   0.003439  0.007356  0.004890
13  0.999804   0.003609  0.010928  0.009991
14  0.999813   0.003567  0.010290  0.010104
15  0.999950   0.001575  0.000000  0.000000
16  0.999950   0.001581  0.000000  0.000000
17  0.999834   0.003456  0.000000  0.000000
18  0.999834   0.003467  0.000000  0.000000
19  1.000000   0.000000 -0.018365 -0.046295
20  1.000000   0.000006  0.000000  0.000000
21  1.000000   0.000000 -0.027601 -0.047892
22  1.000000   0.000007  0.000000  0.000000
--------------------------------------------------

LINE:
    p_from_mw  q_from_mvar   p_to_mw  q_to_mvar         pl_mw       ql_mvar  i_from_ka   i_to_ka      i_ka  vm_from_pu  va_from_degree  vm_to_pu  va_to_degree  loading_percent
0    0.018355     0.042295 -0.018353  -0.042293  2.079311e-06  1.621273e-06   0.001775  0.001775  0.001775    1.000000        0.000006  0.999950      0.001575         0.771580
1    0.027591     0.043892 -0.027584  -0.043886  7.229821e-06  5.637211e-06   0.001995  0.001995  0.001995    1.000000        0.000007  0.999834      0.003456         0.867598
2    0.021267     0.030886 -0.021266  -0.030886  1.087532e-06  8.479665e-07   0.001443  0.001443  0.001443    0.999950        0.001575  0.999915      0.002209         0.627585
3    0.007356     0.004890 -0.007356  -0.004890  2.699000e-08  2.104455e-08   0.000340  0.000340  0.000340    0.999834        0.003456  0.999830      0.003439         0.147841
4    0.021218     0.020096 -0.021218  -0.020096  4.671579e-07  3.642507e-07   0.001125  0.001125  0.001125    0.999834        0.003456  0.999813      0.003567         0.489148
5   -0.002923     0.010407  0.002978  -0.010365  5.466147e-05  4.262045e-05   0.015604  0.015604  0.015604    0.999950        0.001581  0.997539      0.342420         6.784205
6   -0.000516     0.007535  0.000560  -0.007500  4.426868e-05  3.451702e-05   0.010903  0.010903  0.010903    0.999834        0.003467  0.995694      0.357859         4.740456
7   -0.000407     0.001759  0.000409  -0.001758  2.203687e-06  1.718251e-06   0.002607  0.002607  0.002607    0.999834        0.003467  0.999183      0.083935         1.133390
8   -0.000077     0.008606  0.000090  -0.008596  1.274029e-05  9.933811e-06   0.012425  0.012425  0.012425    0.999834        0.003467  0.998694      0.088968         5.402016
9   -0.015850    -0.019460  0.015850   0.019460  2.178820e-07  1.698861e-07   0.000966  0.000966  0.000966    0.999904        0.002349  0.999915      0.002209         0.420053
10  -0.007182    -0.010463  0.007182   0.010463  7.878570e-08  6.143051e-08   0.000489  0.000489  0.000489    0.999896        0.002486  0.999904      0.002349         0.212403
11   0.010928     0.009991 -0.010928  -0.009991  1.072720e-07  8.364178e-08   0.000570  0.000570  0.000570    0.999813        0.003567  0.999804      0.003609         0.247845
12   0.001299    -0.004976 -0.001284   0.004989  1.577554e-05  1.230045e-05   0.007453  0.007453  0.007453    0.996000        0.546766  0.997539      0.342420         3.240562
13   0.000247    -0.004242 -0.000235   0.004251  1.216262e-05  9.483398e-06   0.006160  0.006160  0.006160    0.995483        0.513251  0.997539      0.342420         2.678425
14   0.000033    -0.003331 -0.000023   0.003339  1.016896e-05  7.928904e-06   0.004839  0.004839  0.004839    0.993660        0.722568  0.996000      0.546766         2.104083
15   0.000848     0.005922 -0.000804  -0.005888  4.366674e-05  3.404767e-05   0.008647  0.008647  0.008647    0.998694        0.088968  0.992056      0.459204         3.759461
16   0.001290    -0.000987 -0.001287   0.000989  2.314483e-06  1.804640e-06   0.002353  0.002353  0.002353    0.996147        0.458085  0.995694      0.357859         1.023207
--------------------------------------------------

TRAFO:
    p_hv_mw  q_hv_mvar   p_lv_mw  q_lv_mvar    pl_mw  ql_mvar   i_hv_ka   i_lv_ka  vm_hv_pu  va_hv_degree  vm_lv_pu  va_lv_degree  loading_percent
0 -0.002913   0.011407  0.002923  -0.010407  0.00001    0.001  0.000453  0.015604  0.999950      0.001575  0.999950      0.001581         0.117738
1 -0.000990   0.018900  0.001000  -0.017900  0.00001    0.001  0.000729  0.025882  0.999834      0.003456  0.999834      0.003467         0.189291
2  0.018365   0.046295 -0.018355  -0.042295  0.00001    0.004  0.000411  0.001775  1.000000      0.000000  1.000000      0.000006         0.124512
3  0.027601   0.047892 -0.027591  -0.043892  0.00001    0.004  0.000456  0.001995  1.000000      0.000000  1.000000      0.000007         0.138191
--------------------------------------------------
